7

N           -0.722156283038    -0.004423082368    -0.048588286373
C            0.737742160428    -0.000901070855    -0.010586967857
H            1.186936028755     0.089475113060     0.992767157294
H            1.109349603056     0.828760686746    -0.620082520112
H            1.109460330258    -0.926021396300    -0.462115376391
H           -1.078071407997     0.848688803630     0.372536741546
H           -1.077951726461    -0.768718455164     0.518053879878
