6

O            0.691213853126    -0.046304643067     0.023801405774
C           -0.726338625150     0.028155395690     0.026767995708
H           -1.095229941053    -0.732282086779     0.720661020223
H           -1.153647474037    -0.165847223535    -0.967086695178
H           -1.078503201178     1.011121063804     0.372906993525
H            1.005704742006     0.286655061378    -0.822948839446
