6

O            0.692445912672     0.021073338156     0.002848674228
C           -0.726183244268     0.032094974468    -0.011116073300
H           -1.154395772080    -0.710358603198     0.675790019357
H           -1.119959528274    -0.139268767465    -1.022064107270
H           -1.052695952223     1.023517804443     0.320606909195
H            0.983971605684    -0.890488965334     0.112813831894
