6

O            0.692874876376     0.004668252765    -0.028207846764
C           -0.726847323855     0.037829049556    -0.006950632938
H           -1.152309426734    -0.719396383190     0.663464011204
H           -1.114232855087    -0.128617428068    -1.018954146018
H           -1.068855531804     1.023576735526     0.334407545646
H            0.993417283326    -0.700075495551     0.551521582790
