6

O            0.691058251569    -0.031420620669    -0.041994966806
C           -0.727129224280    -0.002526828670     0.000644489370
H           -1.124711146718    -0.772202574140     0.676316345911
H           -1.092842579593    -0.194601288009    -1.012349906314
H           -1.114988240329     0.976906097194     0.319616221701
H            1.022749130396     0.518652332367     0.675234112287
