6

O            0.692825503038    -0.013411285172     0.026542862627
C           -0.726923044348     0.024871428716     0.027328755974
H           -1.115300958332    -0.734084390271     0.716606772050
H           -1.150083602333    -0.152912030607    -0.969265327559
H           -1.070360017971     1.009357077278     0.370832353069
H            0.995449229997    -0.205653669213    -0.864827104528
