*****
     RDKit          3D

  6  5  0  0  0  0  0  0  0  0999 V2000
    0.6725    0.0089    0.0045 O   0  0  0  0  0  0  0  0  0  0  0  0
   -0.7430    0.0341    0.0139 C   0  0  0  0  0  0  0  0  0  0  0  0
   -1.1212   -0.7250    0.7123 H   0  0  0  0  0  0  0  0  0  0  0  0
   -1.1038   -0.1196   -1.0121 H   0  0  0  0  0  0  0  0  0  0  0  0
   -1.0522    1.0293    0.3642 H   0  0  0  0  0  0  0  0  0  0  0  0
    0.9644   -0.8945    0.1652 H   0  0  0  0  0  0  0  0  0  0  0  0
  4  2  1  0
  1  2  1  0
  1  6  1  0
  2  5  1  0
  2  3  1  0
M  END

