9

O            0.581360737471    -1.174787187362     0.048614241112
N            0.778572705758     1.077397303647    -0.061956592736
C           -1.454601013884     0.103783932951     0.005638870371
C            0.053374188836    -0.079143874023     0.001738607614
H           -1.904533022802    -0.698688988235    -0.581326830704
H           -1.819284319149     0.010348398503     1.033938863972
H           -1.774570837155     1.071369831252    -0.390694185757
H            1.783065025183     1.008510705361    -0.012459797748
H            0.355112237649     1.990064762999    -0.047997100286
